<?xml version="1.0" encoding="UTF-8"?>

<!-- generated on Tue 05 Nov 2024 12:03:25 PM UTC by Eclipse SUMO netedit Version 1.8.0
<configuration xmlns:xsi="http://www.w3.org/2001/XMLSchema-instance" xsi:noNamespaceSchemaLocation="http://sumo.dlr.de/xsd/netconvertConfiguration.xsd">

    <output>
        <output-file value="/home/veins/src/apotelesma/apotelesma.net.xml"/>
    </output>

    <processing>
        <offset.disable-normalization value="true"/>
    </processing>

    <junctions>
        <no-turnarounds value="true"/>
    </junctions>

    <netedit>
        <route-files value="/home/veins/src/apotelesma/apotelesma.rou.xml"/>
    </netedit>

    <report>
        <aggregate-warnings value="5"/>
    </report>

</configuration>
-->

<routes xmlns:xsi="http://www.w3.org/2001/XMLSchema-instance" xsi:noNamespaceSchemaLocation="http://sumo.dlr.de/xsd/routes_file.xsd">
    <trip id="vehicle_0" depart="0.00" departSpeed="25.00" color="yellow" from="gneE3" to="gneE4"/>
    <trip id="vehicle_1" depart="0.00" departSpeed="22.00" color="red" from="gneE2" to="gneE4"/>
</routes>
